18
naphthalene
 C                  0.00000000  -0.71341943      -0.00000000  
 C                  0.00000000  -1.40956724       1.23004883 
 C                  0.00000000  -0.70270591       2.44591969 
 C                  0.00000000   0.70270591       2.44591969 
 C                  0.00000000   1.40956724       1.23004883 
 C                  0.00000000   0.71341943      -0.00000000 
 C                  0.00000000   1.40956724      -1.23004883 
 C                  0.00000000   0.70270591      -2.44591969 
 C                  0.00000000  -0.70270591      -2.44591969 
 C                  0.00000000  -1.40956724      -1.23004883 
 H                  0.00000000  -2.43261568       1.25297996 
 H                  0.00000000  -1.21372732       3.33059057 
 H                  0.00000000   1.21372732       3.33059057 
 H                  0.00000000   2.43261568       1.25297996 
 H                  0.00000000   2.43261568      -1.25297996 
 H                  0.00000000   1.21372732      -3.33059057 
 H                  0.00000000  -1.21372732      -3.33059057 
 H                  0.00000000  -2.43261568      -1.25297996 

